/*--------------------------------*- C++ -*----------------------------------*\
| =========                 |                                                 |
| \\      /  F ield         | OpenFOAM: The Open Source CFD Toolbox           |
|  \\    /   O peration     | Version:  v2312                                 |
|   \\  /    A nd           | Website:  www.openfoam.com                      |
|    \\/     M anipulation  |                                                 |
\*---------------------------------------------------------------------------*/
FoamFile
{
    version     2.0;
    format      ascii;
    class       dictionary;
    object      blockMeshDict;
}
// * * * * * * * * * * * * * * * * * * * * * * * * * * * * * * * * * * * * * //

scale   1;

vertices
(
    (-2 0 -2)
    (-2 -2 -2)
    (-2 -2 0)
    (-2 0 0)

    (6 0 -2)
    (6 -2 -2)
    (6 -2 0)
    (6 0 0)
    
);

blocks
(
    hex (2 6 5 1 3 7 4 0) (80 40 20) simpleGrading (1 1 1)
);

edges
(
);

boundary
(
    front
    {
        type symmetryPlane;
        faces
        (
            (2 6 7 3)
        );
    }
    inlet
    {
        type patch;
        faces
        (
            (0 1 2 3)
            (2 1 5 6)
            (0 4 5 1)
            (0 3 7 4)
        );
    }
    outlet
    {
        type patch;
        faces
        (
            (7 6 5 4)
        );
    }
);


// ************************************************************************* //
