/*--------------------------------*- C++ -*----------------------------------*\
| =========                 |                                                 |
| \\      /  F ield         | OpenFOAM: The Open Source CFD Toolbox           |
|  \\    /   O peration     | Version:  v2312                                 |
|   \\  /    A nd           | Website:  www.openfoam.com                      |
|    \\/     M anipulation  |                                                 |
\*---------------------------------------------------------------------------*/
FoamFile
{
    version     2.0;
    format      ascii;
    class       volScalarField;
    object      k;
}
// * * * * * * * * * * * * * * * * * * * * * * * * * * * * * * * * * * * * * //

kInlet          0.00547043;  // approx k = 1.5*(I*U)^2 ; I = 0.1

dimensions      [0 2 -2 0 0 0 0];

internalField   uniform $kInlet;

boundaryField
{
    inlet
    {
        type            fixedValue;
        value           uniform $kInlet;
    }

    outlet
    {
        type            zeroGradient;
    }

    walls
    {
        type            slip;//kqRWallFunction;
        //value           uniform $kInlet;
    }
    aerostat0
    {
        type            kqRWallFunction;
        value           uniform $kInlet;
    }
    front
    {
    	type symmetryPlane;
    }

    #includeEtc "caseDicts/setConstraintTypes"
}


// ************************************************************************* //
