/*--------------------------------*- C++ -*----------------------------------*\
| =========                 |                                                 |
| \\      /  F ield         | OpenFOAM: The Open Source CFD Toolbox           |
|  \\    /   O peration     | Version:  v2312                                 |
|   \\  /    A nd           | Website:  www.openfoam.com                      |
|    \\/     M anipulation  |                                                 |
\*---------------------------------------------------------------------------*/
FoamFile
{
    version     2.0;
    format      ascii;
    class       volScalarField;
    object      nut;
}
// * * * * * * * * * * * * * * * * * * * * * * * * * * * * * * * * * * * * * //

dimensions      [0 2 -1 0 0 0 0];

internalField   uniform 1.48e-5;//2.96e-6;//2.58e-13;

boundaryField
{
    inlet
    {
        type            freestream;
        freestreamValue $internalField;
    }

    outlet
    {
        type            zeroGradient;//freestream;
        //freestreamValue $internalField;
    }

    aerostat0
    {
        type            nutkWallFunction;
        value           uniform 0;
    }

    frontAndBack
    {
        type            empty;
    }
}


// ************************************************************************* //
